[General]
network = Z1Network
sim-time-limit = 5s